*HEADING
cubit(cts/mastodon/examples/Adaptive_Mesh/Vessel_NoIsolator.inp): 01/04/2021: 15
version: 15.5b
**
********************************** P A R T S **********************************
*PART, NAME=Part-Default
**
********************************** N O D E S **********************************
*NODE, NSET=ALLNODES
       1,   -2.450000e+00,    3.000385e-16,    6.000000e+00
       2,   -2.412779e+00,    4.254380e-01,    6.000000e+00
       3,   -2.302247e+00,    8.379494e-01,    6.000000e+00
       4,   -2.121762e+00,    1.225000e+00,    6.000000e+00
       5,   -1.876809e+00,    1.574830e+00,    6.000000e+00
       6,   -1.574830e+00,    1.876809e+00,    6.000000e+00
       7,   -1.225000e+00,    2.121762e+00,    6.000000e+00
       8,   -8.379494e-01,    2.302247e+00,    6.000000e+00
       9,   -4.254380e-01,    2.412779e+00,    6.000000e+00
      10,    1.500192e-16,    2.450000e+00,    6.000000e+00
      11,    4.254380e-01,    2.412779e+00,    6.000000e+00
      12,    8.379494e-01,    2.302247e+00,    6.000000e+00
      13,    1.225000e+00,    2.121762e+00,    6.000000e+00
      14,    1.574830e+00,    1.876809e+00,    6.000000e+00
      15,    1.876809e+00,    1.574830e+00,    6.000000e+00
      16,    2.121762e+00,    1.225000e+00,    6.000000e+00
      17,    2.302247e+00,    8.379494e-01,    6.000000e+00
      18,    2.412779e+00,    4.254380e-01,    6.000000e+00
      19,    2.450000e+00,    0.000000e+00,    6.000000e+00
      20,    2.412779e+00,   -4.254380e-01,    6.000000e+00
** ... 3563 like lines cut
**
********************************** E L E M E N T S ****************************
*ELEMENT, TYPE=C3D8R, ELSET=EB1
       1,     142,     141,      87,      88,      22,      23,      69,      70
       2,      88,      89,     143,     142,      70,      71,      21,      22
       3,      90,     144,     143,      89,      72,      20,      21,      71
       4,      91,     109,     144,      90,      37,      19,      20,      72
       5,      92,     110,     109,      91,      38,      18,      19,      37
       6,      93,     111,     110,      92,      39,      17,      18,      38
       7,      94,     112,     111,      93,      40,      16,      17,      39
       8,      95,     113,     112,      94,      41,      15,      16,      40
       9,      96,     114,     113,      95,      42,      14,      15,      41
      10,      97,     115,     114,      96,      43,      13,      14,      42
      11,      98,     116,     115,      97,      44,      12,      13,      43
      12,      99,     117,     116,      98,      45,      11,      12,      44
      13,     100,     118,     117,      99,      46,      10,      11,      45
      14,     101,     119,     118,     100,      47,       9,      10,      46
      15,     102,     120,     119,     101,      48,       8,       9,      47
      16,     140,      86,      87,     141,      24,      68,      69,      23
      17,     139,      85,      86,     140,      25,      67,      68,      24
      18,     138,      84,      85,     139,      26,      66,      67,      25
      19,     137,      83,      84,     138,      27,      65,      66,      26
      20,     136,      82,      83,     137,      28,      64,      65,      27
** ... 952 like lines cut
*ELEMENT, TYPE=C3D8R, ELSET=EB2
     973,    1808,    1791,    1820,    1819,    2032,    2012,    2045,    2051
     974,    1819,    1837,    1807,    1808,    2051,    2030,    2031,    2032
     975,    1839,    1838,    1809,    1820,    2033,    2046,    2049,    2045
     976,    1810,    1811,    1838,    1839,    2034,    2035,    2046,    2033
     977,    1836,    1837,    1819,    1818,    2057,    2030,    2051,    2044
     978,    1806,    1836,    1818,    1805,    2029,    2057,    2044,    2028
     979,    1789,    1834,    1836,    1806,    2009,    2056,    2057,    2029
     980,    1834,    1835,    1837,    1836,    2056,    2010,    2030,    2057
     981,    1765,    1766,    1835,    1834,    1983,    1984,    2010,    2056
     982,    1764,    1765,    1834,    1789,    1982,    1983,    2056,    2009
     983,    1832,    1833,    1815,    1823,    2055,    2023,    2041,    2040
     984,    1800,    1832,    1823,    1799,    2022,    2055,    2040,    2021
     985,    1781,    1830,    1832,    1800,    2000,    2054,    2055,    2022
     986,    1830,    1831,    1833,    1832,    2054,    2001,    2023,    2055
     987,    1753,    1754,    1831,    1830,    1971,    1972,    2001,    2054
     988,    1752,    1753,    1830,    1781,    1970,    1971,    2054,    2000
     989,    1828,    1829,    1811,    1810,    2053,    2016,    2035,    2034
     990,    1794,    1828,    1810,    1793,    2015,    2053,    2034,    2014
     991,    1773,    1826,    1828,    1794,    1991,    2052,    2053,    2015
     992,    1826,    1827,    1829,    1828,    2052,    1992,    2016,    2053
** ... 1870 like lines cut
**
********************************** S I D E S E T S **********************************
*ELSET, ELSET=Top_S2
       1,       2,       3,       4,       5,       6,       7,       8,       9,      10,
      11,      12,      13,      14,      15,      16,      17,      18,      19,      20,
      21,      22,      23,      24,      25,      26,      27,      28,      29,      30,
      31,      32,      33,      34,      35,      36,      37,      38,      39,      40,
      41,      42,      43,      44,      45,      46,      47,      48,      49,      50,
      51,      52,      53,      54,      55,      56,      57,      58,      59,      60,
      61,      62,      63,      64,      65,      66,      67,      68,      69,      70,
      71,      72,      73,      74,      75,      76,      77,      78,      79,      80,
      81,      82,      83,      84,      85,      86,      87,      88,      89,      90,
      91,      92,      93,      94,      95,      96,      97,      98,      99,     100,
     101,     102,     103,     104,     105,     106,     107,     108,     109,     110,
     111,     112,     113,     114,     115,     116,     117,     118,     119,     120,
     121,     122,     123,     124,     125,     126,     127,     128,     129,     130,
     131,     132,     133,     134,     135,     136,     137,     138,     139,     140,
     141,     142,     143,     144,     145,     146,     147,     148,     149,     150,
     151,     152,     153,     154,     155,     156,     157,     158,     159,     160,
     161,     162
*SURFACE, NAME=Top
Top_S2, S2
*ELSET, ELSET=Bottom_S1
     163,     164,     165,     166,     167,     168,     169,     170,     171,     172,
     173,     174,     175,     176,     177,     178,     179,     180,     181,     182,
     183,     184,     185,     186,     187,     188,     189,     190,     191,     192,
     193,     194,     195,     196,     197,     198,     199,     200,     201,     202,
     203,     204,     205,     206,     207,     208,     209,     210,     211,     212,
     213,     214,     215,     216,     217,     218,     219,     220,     221,     222,
     223,     224,     225,     226,     227,     228,     229,     230,     231,     232,
     233,     234,     235,     236,     237,     238,     239,     240,     241,     242,
     243,     244,     245,     246,     247,     248,     249,     250,     251,     252,
     253,     254,     255,     256,     257,     258,     259,     260,     261,     262,
     263,     264,     265,     266,     267,     268,     269,     270,     271,     272,
     273,     274,     275,     276,     277,     278,     279,     280,     281,     282,
     283,     284,     285,     286,     287,     288,     289,     290,     291,     292,
     293,     294,     295,     296,     297,     298,     299,     300,     301,     302,
     303,     304,     305,     306,     307,     308,     309,     310,     311,     312,
     313,     314,     315,     316,     317,     318,     319,     320,     321,     322,
     323,     324
*SURFACE, NAME=Bottom
Bottom_S1, S1
*ELSET, ELSET=Interface_S2
     163,     164,     165,     166,     167,     168,     169,     170,     171,     172,
     173,     174,     175,     176,     177,     178,     179,     180,     181,     182,
     183,     184,     185,     186,     187,     188,     189,     190,     191,     192,
     193,     194,     195,     196,     197,     198,     199,     200,     201,     202,
     203,     204,     205,     206,     207,     208,     209,     210,     211,     212,
     213,     214,     215,     216,     217,     218,     219,     220,     221,     222,
     223,     224,     225,     226,     227,     228,     229,     230,     231,     232,
     233,     234,     235,     236,     237,     238,     239,     240,     241,     242,
     243,     244,     245,     246,     247,     248,     249,     250,     251,     252,
     253,     254,     255,     256,     257,     258,     259,     260,     261,     262,
     263,     264,     265,     266,     267,     268,     269,     270,     271,     272,
     273,     274,     275,     276,     277,     278,     279,     280,     281,     282,
     283,     284,     285,     286,     287,     288
*ELSET, ELSET=Interface_S3
     325,     360,     361,     396,     397,     432,     433,     468,     469,     504,
     505,     540,     541,     576,     577,     612,     613,     648,     649,     684,
     685,     720,     721,     756,     757,     792,     793,     828,     829,     864
*ELSET, ELSET=Interface_S4
     340,     341,     342,     343,     344,     345,     346,     347,     354,     355,
     356,     357,     358,     359,     376,     377,     378,     379,     380,     381,
     382,     383,     390,     391,     392,     393,     394,     395,     412,     413,
     414,     415,     416,     417,     418,     419,     426,     427,     428,     429,
     430,     431,     448,     449,     450,     451,     452,     453,     454,     455,
     462,     463,     464,     465,     466,     467,     484,     485,     486,     487,
     488,     489,     490,     491,     498,     499,     500,     501,     502,     503,
     520,     521,     522,     523,     524,     525,     526,     527,     534,     535,
     536,     537,     538,     539,     556,     557,     558,     559,     560,     561,
     562,     563,     570,     571,     572,     573,     574,     575,     592,     593,
     594,     595,     596,     597,     598,     599,     606,     607,     608,     609,
     610,     611,     628,     629,     630,     631,     632,     633,     634,     635,
     642,     643,     644,     645,     646,     647,     664,     665,     666,     667,
     668,     669,     670,     671,     678,     679,     680,     681,     682,     683,
     700,     701,     702,     703,     704,     705,     706,     707,     714,     715,
     716,     717,     718,     719,     736,     737,     738,     739,     740,     741,
     742,     743,     750,     751,     752,     753,     754,     755,     772,     773,
     774,     775,     776,     777,     778,     779,     786,     787,     788,     789,
     790,     791,     808,     809,     810,     811,     812,     813,     814,     815,
     822,     823,     824,     825,     826,     827,     844,     845,     846,     847,
     848,     849,     850,     851,     858,     859,     860,     861,     862,     863
*ELSET, ELSET=Interface_S5
     326,     362,     398,     434,     470,     506,     542,     578,     614,     650,
     686,     722,     758,     794,     830
*ELSET, ELSET=Interface_S6
     327,     328,     329,     330,     331,     332,     333,     334,     335,     336,
     337,     338,     339,     348,     349,     350,     351,     352,     353,     363,
     364,     365,     366,     367,     368,     369,     370,     371,     372,     373,
     374,     375,     384,     385,     386,     387,     388,     389,     399,     400,
     401,     402,     403,     404,     405,     406,     407,     408,     409,     410,
     411,     420,     421,     422,     423,     424,     425,     435,     436,     437,
     438,     439,     440,     441,     442,     443,     444,     445,     446,     447,
     456,     457,     458,     459,     460,     461,     471,     472,     473,     474,
     475,     476,     477,     478,     479,     480,     481,     482,     483,     492,
     493,     494,     495,     496,     497,     507,     508,     509,     510,     511,
     512,     513,     514,     515,     516,     517,     518,     519,     528,     529,
     530,     531,     532,     533,     543,     544,     545,     546,     547,     548,
     549,     550,     551,     552,     553,     554,     555,     564,     565,     566,
     567,     568,     569,     579,     580,     581,     582,     583,     584,     585,
     586,     587,     588,     589,     590,     591,     600,     601,     602,     603,
     604,     605,     615,     616,     617,     618,     619,     620,     621,     622,
     623,     624,     625,     626,     627,     636,     637,     638,     639,     640,
     641,     651,     652,     653,     654,     655,     656,     657,     658,     659,
     660,     661,     662,     663,     672,     673,     674,     675,     676,     677,
     687,     688,     689,     690,     691,     692,     693,     694,     695,     696,
** ... 9 like lines cut
*SURFACE, NAME=Interface
Interface_S2, S2
Interface_S3, S3
Interface_S4, S4
Interface_S5, S5
Interface_S6, S6
*ELSET, ELSET=Fluid_top_S2
    2737,    2738,    2739,    2740,    2741,    2742,    2743,    2744,    2745,    2746,
    2747,    2748,    2749,    2750,    2751,    2752,    2753,    2754,    2755,    2756,
    2757,    2758,    2759,    2760,    2761,    2762,    2763,    2764,    2765,    2766,
    2767,    2768,    2769,    2770,    2771,    2772,    2773,    2774,    2775,    2776,
    2777,    2778,    2779,    2780,    2781,    2782,    2783,    2784,    2785,    2786,
    2787,    2788,    2789,    2790,    2791,    2792,    2793,    2794,    2795,    2796,
    2797,    2798,    2799,    2800,    2801,    2802,    2803,    2804,    2805,    2806,
    2807,    2808,    2809,    2810,    2811,    2812,    2813,    2814,    2815,    2816,
    2817,    2818,    2819,    2820,    2821,    2822,    2823,    2824,    2825,    2826,
    2827,    2828,    2829,    2830,    2831,    2832,    2833,    2834,    2835,    2836,
    2837,    2838,    2839,    2840,    2841,    2842,    2843,    2844,    2845,    2846,
    2847,    2848,    2849,    2850,    2851,    2852,    2853,    2854,    2855,    2856,
    2857,    2858,    2859,    2860,    2861,    2862
*SURFACE, NAME=Fluid_top
Fluid_top_S2, S2
*ELSET, ELSET=Moment_S3
     325,     360,     361,     396,     397,     432,     433,     468,     469,     504,
     505,     540,     541,     576,     577,     612,     613,     648,     649,     684,
     685,     720,     721,     756,     757,     792,     793,     828,     829,     864
*ELSET, ELSET=Moment_S4
     340,     341,     342,     343,     344,     345,     346,     347,     354,     355,
     356,     357,     358,     359,     376,     377,     378,     379,     380,     381,
     382,     383,     390,     391,     392,     393,     394,     395,     412,     413,
     414,     415,     416,     417,     418,     419,     426,     427,     428,     429,
     430,     431,     448,     449,     450,     451,     452,     453,     454,     455,
     462,     463,     464,     465,     466,     467,     484,     485,     486,     487,
     488,     489,     490,     491,     498,     499,     500,     501,     502,     503,
     520,     521,     522,     523,     524,     525,     526,     527,     534,     535,
     536,     537,     538,     539,     556,     557,     558,     559,     560,     561,
     562,     563,     570,     571,     572,     573,     574,     575,     592,     593,
     594,     595,     596,     597,     598,     599,     606,     607,     608,     609,
     610,     611,     628,     629,     630,     631,     632,     633,     634,     635,
     642,     643,     644,     645,     646,     647,     664,     665,     666,     667,
     668,     669,     670,     671,     678,     679,     680,     681,     682,     683,
     700,     701,     702,     703,     704,     705,     706,     707,     714,     715,
     716,     717,     718,     719,     736,     737,     738,     739,     740,     741,
     742,     743,     750,     751,     752,     753,     754,     755,     772,     773,
     774,     775,     776,     777,     778,     779,     786,     787,     788,     789,
     790,     791,     808,     809,     810,     811,     812,     813,     814,     815,
     822,     823,     824,     825,     826,     827,     844,     845,     846,     847,
     848,     849,     850,     851,     858,     859,     860,     861,     862,     863
*ELSET, ELSET=Moment_S5
     326,     362,     398,     434,     470,     506,     542,     578,     614,     650,
     686,     722,     758,     794,     830
*ELSET, ELSET=Moment_S6
     327,     328,     329,     330,     331,     332,     333,     334,     335,     336,
     337,     338,     339,     348,     349,     350,     351,     352,     353,     363,
     364,     365,     366,     367,     368,     369,     370,     371,     372,     373,
     374,     375,     384,     385,     386,     387,     388,     389,     399,     400,
     401,     402,     403,     404,     405,     406,     407,     408,     409,     410,
     411,     420,     421,     422,     423,     424,     425,     435,     436,     437,
     438,     439,     440,     441,     442,     443,     444,     445,     446,     447,
     456,     457,     458,     459,     460,     461,     471,     472,     473,     474,
     475,     476,     477,     478,     479,     480,     481,     482,     483,     492,
     493,     494,     495,     496,     497,     507,     508,     509,     510,     511,
     512,     513,     514,     515,     516,     517,     518,     519,     528,     529,
     530,     531,     532,     533,     543,     544,     545,     546,     547,     548,
     549,     550,     551,     552,     553,     554,     555,     564,     565,     566,
     567,     568,     569,     579,     580,     581,     582,     583,     584,     585,
     586,     587,     588,     589,     590,     591,     600,     601,     602,     603,
     604,     605,     615,     616,     617,     618,     619,     620,     621,     622,
     623,     624,     625,     626,     627,     636,     637,     638,     639,     640,
     641,     651,     652,     653,     654,     655,     656,     657,     658,     659,
     660,     661,     662,     663,     672,     673,     674,     675,     676,     677,
     687,     688,     689,     690,     691,     692,     693,     694,     695,     696,
** ... 9 like lines cut
*SURFACE, NAME=Moment
Moment_S3, S3
Moment_S4, S4
Moment_S5, S5
Moment_S6, S6
**
********************************** P R O P E R T I E S ************************
*SOLID SECTION, ELSET=EB1, MATERIAL=Default-Steel
*SOLID SECTION, ELSET=EB2, MATERIAL=Default-Steel
**
*END PART
**
**
**
********************************** E N D   P A R T S **********************************
**
**
********************************** A S S E M B L Y ************************************
**
*ASSEMBLY, NAME=ASSEMBLY1
**
*INSTANCE, NAME=Part-Default_1, PART=Part-Default
*END INSTANCE
**
*END ASSEMBLY
**
**
**
*MATERIAL, NAME = Default-Steel
*ELASTIC, TYPE=ISOTROPIC
2.068000e+05, 2.900000e-01
*DENSITY
7.000000e-06
*CONDUCTIVITY,TYPE=ISO
4.500000e-02
*SPECIFIC HEAT
5.000000e+02
**
**
************************************** H I S T O R Y *************************************
**
*PREPRINT
**
**************************************** S T E P 1 ***************************************
*STEP,INC=100,NAME=Default Set
**
*STATIC
1, 1, 1e-05, 1
**
**
**
**
*END STEP
